Version 4
SHEET 1 880 680
WIRE 192 64 192 16
WIRE 144 80 96 80
WIRE 96 192 96 80
WIRE 96 192 32 192
WIRE 192 192 192 160
WIRE 304 192 192 192
WIRE 192 224 192 192
WIRE 96 304 96 192
WIRE 144 304 96 304
WIRE 192 368 192 320
FLAG 192 368 0
FLAG 192 272 0
FLAG -160 144 0
FLAG -160 336 0
FLAG -160 64 VDD
FLAG 192 16 VDD
FLAG 304 192 Vout
FLAG 32 192 Vin
FLAG -160 256 Vin
FLAG 192 112 VDD
SYMBOL pmos4 144 160 M180
WINDOW 0 52 21 Left 2
WINDOW 3 57 76 Left 2
WINDOW 123 56 -1 Left 2
SYMATTR InstName M1
SYMATTR Value P_50n
SYMATTR Value2 l=50n w=1000n
SYMBOL nmos4 144 224 R0
WINDOW 123 56 100 Left 2
SYMATTR InstName M2
SYMATTR Value N_50n
SYMATTR Value2 l=50n w=500n
SYMBOL voltage -160 48 R0
WINDOW 123 0 0 Left 0
WINDOW 39 0 0 Left 0
SYMATTR InstName VDD
SYMATTR Value 1
SYMBOL voltage -160 240 R0
WINDOW 123 0 0 Left 0
WINDOW 39 0 0 Left 0
SYMATTR InstName Vin
SYMATTR Value PULSE(0 1 50p 1p 1p 100p)
TEXT -288 -72 Left 2 !.lib C:\\Users\\Sarthak\\Desktop\\CMOS_PRO\\pure_models.txt
TEXT -288 392 Left 2 !.tran 250p
